%chk=SubH_AsSHMe_wb97xd_aug-cc-pvtz_reor.chk
%nprocs=4
%mem=3200MB
#p wB97XD/aug-cc-pvtz output=wfx nosymmetry

single point on SubH_AsSHMe_wb97xd_aug-cc-pvtz reoriented by subproptools

0 1
As1  0.000000  0.000000e+00  0.000000e+00
 H2 -1.509897 -6.463566e-18  2.077026e-17
 H3  0.278007  1.484083e+00  1.116441e-16
 S4  0.899674 -1.083856e+00 -1.509210e+00
 C5  0.439687 -5.296994e-01  1.807542e+00
 H6 -0.083250  1.002934e-01  2.524137e+00
 H7  0.150708 -1.569870e+00  1.934059e+00
 H8  1.515281 -4.371806e-01  1.934059e+00

SubH_AsSHMe_wb97xd_aug-cc-pvtz_reor.wfx


