%chk=SubH_GeFHCH3_reor_wb97xd_aug-cc-pvtz_reor.chk
%nprocs=4
%mem=3200MB
#p wB97XD/aug-cc-pvtz output=wfx nosymmetry

single point on SubH_GeFHCH3_reor_wb97xd_aug-cc-pvtz reoriented by subproptools

0 1
 H1 -1.533030  7.663733e-17  4.121862e-18
 H2  0.567233  1.424228e+00  9.133070e-17
 C3  0.771821 -1.138179e+00  1.364975e+00
 H4  0.388779 -2.151743e+00  1.264662e+00
 H5  1.855179 -1.157349e+00  1.264662e+00
 H6  0.517709 -7.634478e-01  2.356185e+00
 F7  0.465710 -6.867666e-01 -1.541967e+00
Ge8  0.000000  0.000000e+00  0.000000e+00

SubH_GeFHCH3_reor_wb97xd_aug-cc-pvtz_reor.wfx


