%chk=SubH_NHCHO_wb97xd_aug-cc-pvtz_reor.chk
%nprocs=4
%mem=3200MB
#p wB97XD/aug-cc-pvtz output=wfx nosymmetry

single point on SubH_NHCHO_wb97xd_aug-cc-pvtz reoriented by subproptools

0 1
N1  0.000000  0.000000e+00  0.000000e+00
H2 -1.001803  2.298395e-17  9.432319e-22
C3  0.703368 -1.156741e+00 -1.291908e-04
O4  1.907534 -1.229984e+00 -1.606766e-04
H5  0.053574 -2.048467e+00 -1.224688e-04
H6  0.492999  8.754913e-01  4.015097e-21

SubH_NHCHO_wb97xd_aug-cc-pvtz_reor.wfx


